   FoamFile
   {
       version     2.0;
       format      ascii;
       class       volScalarField;
       location    "0";
       object      p_rgh;
   }
   // * * * * * * * * * * * * * * * * * * * * * * * * * * * * * * * * * * * * * //

   dimensions      [1 -1 -2 0 0 0 0];

   internalField   uniform 0;

   boundaryField
   {
       bottom
       {
           type            fixedFluxPressure;
           value           uniform 0;
       }
       top
       {
           type            zeroGradient;
       }
       sides
       {
           type            empty;
       }
       frontAndBack
       {
           type            empty;
       }
   }

   // ************************************************************************* //

